12
Coordinates from ORCA-job hydro2
  O   2.30901528790787     -0.09341419899090      0.00005421602927
  N   0.27012277905454     -1.16769791532734      0.00001715975957
  C   1.07961442732148      0.00792434117187      0.00003406767878
  C   0.29435506387850      1.23140343482924      0.00006203835491
  C   -1.09718527703584     -1.18903864494040      0.00000590834807
  C   -1.07722264738112      1.21062342618430      0.00005028565044
  C   -1.80523668103959     -0.01677196766698      0.00001897527524
  H   0.79704945755659     -2.03830167648607      0.00000751523410
  H   0.85573628221497      2.16185318449106      0.00008835679608
  H   -1.56409921349791     -2.17088475242051     -0.00001445818002
  H   -1.62782608697150      2.15100838274350      0.00006628334902
  H   -2.89012339200798     -0.03330361358777      0.00000965170454
